tests/fuzzer/corpus_json/21_random_010.json
{
  "version": "1.0",
  "type": "input",
  "is_batch": false,
  "attributes": {},
  "data": {
    "node": [
      {
        "id": 0,
        "u_rated": 230.0
      },
      {
        "id": 1,
        "u_rated": 230.0
      },
      {
        "id": 2,
        "u_rated": 230.0
      },
      {
        "id": 3,
        "u_rated": 230.0
      },
      {
        "id": 4,
        "u_rated": 230.0
      },
      {
        "id": 5,
        "u_rated": 230.0
      },
      {
        "id": 6,
        "u_rated": 230.0
      },
      {
        "id": 7,
        "u_rated": 230.0
      },
      {
        "id": 8,
        "u_rated": 230.0
      },
      {
        "id": 9,
        "u_rated": 230.0
      },
      {
        "id": 10,
        "u_rated": 230.0
      }
    ],
    "source": [
      {
        "id": 11,
        "node": 0,
        "status": 1,
        "u_ref": 1.0156182602268942,
        "u_ref_angle": 0.0,
        "sk": 428946165.7696471,
        "rx_ratio": 0.10304911606975087,
        "z01_ratio": 1.0
      }
    ],
    "line": [
      {
        "id": 12,
        "from_node": 0,
        "to_node": 1,
        "from_status": 1,
        "to_status": 1,
        "r1": 4.117944362667227,
        "x1": 3.2673626695058786,
        "c1": 1.6022955651881965e-07,
        "tan1": 0.0,
        "r0": 0.3,
        "x0": 0.3,
        "c0": 1e-09,
        "tan0": 0.0,
        "i_n": 525.4626660435254
      },
      {
        "id": 13,
        "from_node": 1,
        "to_node": 2,
        "from_status": 1,
        "to_status": 1,
        "r1": 1.6388640581104656,
        "x1": 1.2499833834320018,
        "c1": 9.528169091459116e-07,
        "tan1": 0.0,
        "r0": 0.3,
        "x0": 0.3,
        "c0": 1e-09,
        "tan0": 0.0,
        "i_n": 996.5914226140607
      },
      {
        "id": 14,
        "from_node": 2,
        "to_node": 3,
        "from_status": 1,
        "to_status": 1,
        "r1": 0.22278191225216515,
        "x1": 4.300805186431455,
        "c1": 6.031906109681851e-07,
        "tan1": 0.0,
        "r0": 0.3,
        "x0": 0.3,
        "c0": 1e-09,
        "tan0": 0.0,
        "i_n": 387.7899260599267
      },
      {
        "id": 15,
        "from_node": 3,
        "to_node": 4,
        "from_status": 1,
        "to_status": 1,
        "r1": 1.4180910895335757,
        "x1": 3.37482423567478,
        "c1": 4.568311510583056e-07,
        "tan1": 0.0,
        "r0": 0.3,
        "x0": 0.3,
        "c0": 1e-09,
        "tan0": 0.0,
        "i_n": 689.0028706198487
      },
      {
        "id": 16,
        "from_node": 4,
        "to_node": 5,
        "from_status": 1,
        "to_status": 1,
        "r1": 3.3092316002617554,
        "x1": 0.664890723561064,
        "c1": 7.678378139439905e-07,
        "tan1": 0.0,
        "r0": 0.3,
        "x0": 0.3,
        "c0": 1e-09,
        "tan0": 0.0,
        "i_n": 982.589116521079
      },
      {
        "id": 17,
        "from_node": 5,
        "to_node": 6,
        "from_status": 1,
        "to_status": 1,
        "r1": 4.846940802024594,
        "x1": 3.066634102733545,
        "c1": 4.4260632864620895e-08,
        "tan1": 0.0,
        "r0": 0.3,
        "x0": 0.3,
        "c0": 1e-09,
        "tan0": 0.0,
        "i_n": 14.01459271682339
      },
      {
        "id": 18,
        "from_node": 6,
        "to_node": 7,
        "from_status": 1,
        "to_status": 1,
        "r1": 0.6698626352456694,
        "x1": 4.7050113569791705,
        "c1": 3.0286056202907226e-07,
        "tan1": 0.0,
        "r0": 0.3,
        "x0": 0.3,
        "c0": 1e-09,
        "tan0": 0.0,
        "i_n": 372.48414564382216
      },
      {
        "id": 19,
        "from_node": 7,
        "to_node": 8,
        "from_status": 1,
        "to_status": 1,
        "r1": 4.490981222695941,
        "x1": 1.5718190247822532,
        "c1": 5.489821840124055e-07,
        "tan1": 0.0,
        "r0": 0.3,
        "x0": 0.3,
        "c0": 1e-09,
        "tan0": 0.0,
        "i_n": 441.670648047881
      },
      {
        "id": 20,
        "from_node": 8,
        "to_node": 9,
        "from_status": 1,
        "to_status": 1,
        "r1": 0.3249708806342527,
        "x1": 2.9227311285096507,
        "c1": 8.440678976619022e-07,
        "tan1": 0.0,
        "r0": 0.3,
        "x0": 0.3,
        "c0": 1e-09,
        "tan0": 0.0,
        "i_n": 164.85472920353234
      },
      {
        "id": 21,
        "from_node": 9,
        "to_node": 10,
        "from_status": 1,
        "to_status": 1,
        "r1": 1.1214948434302074,
        "x1": 2.0643510385742037,
        "c1": 3.6924869058629016e-08,
        "tan1": 0.0,
        "r0": 0.3,
        "x0": 0.3,
        "c0": 1e-09,
        "tan0": 0.0,
        "i_n": 501.6374636303827
      }
    ],
    "sym_load": [
      {
        "id": 22,
        "node": 3,
        "status": 1,
        "type": 0,
        "p_specified": -70062.3730057197,
        "q_specified": 1344.709537262479
      },
      {
        "id": 23,
        "node": 4,
        "status": 1,
        "type": 2,
        "p_specified": -70067.66928297923,
        "q_specified": 9275.930788444384
      },
      {
        "id": 24,
        "node": 6,
        "status": 1,
        "type": 0,
        "p_specified": 89538.78484469815,
        "q_specified": -1335.369948970285
      },
      {
        "id": 25,
        "node": 7,
        "status": 1,
        "type": 0,
        "p_specified": 36157.91391537097,
        "q_specified": -7129.735705665831
      },
      {
        "id": 26,
        "node": 8,
        "status": 1,
        "type": 0,
        "p_specified": -46594.58628932409,
        "q_specified": -3948.5993735584925
      }
    ],
    "shunt": [
      {
        "id": 27,
        "node": 0,
        "status": 1,
        "g1": 1.7608943939308365e-05,
        "b1": 5.456986926134117e-05,
        "g0": 0.0001,
        "b0": 0.0001
      }
    ]
  }
}